Version 4
SHEET 1 880 680
WIRE 64 -368 -192 -368
WIRE 224 -368 192 -368
WIRE 192 -352 192 -368
WIRE 192 -352 160 -352
WIRE 432 -352 320 -352
WIRE 64 -336 -16 -336
WIRE 192 -336 192 -352
WIRE 224 -336 192 -336
WIRE 560 -336 528 -336
WIRE 432 -320 336 -320
WIRE 64 -224 -144 -224
WIRE 224 -224 192 -224
WIRE 192 -208 192 -224
WIRE 192 -208 160 -208
WIRE 432 -208 320 -208
WIRE -16 -192 -16 -336
WIRE 64 -192 -16 -192
WIRE 192 -192 192 -208
WIRE 224 -192 192 -192
WIRE 560 -192 528 -192
WIRE 336 -176 336 -320
WIRE 432 -176 336 -176
WIRE -192 -80 -192 -368
WIRE 64 -80 -192 -80
WIRE 224 -80 192 -80
WIRE 192 -64 192 -80
WIRE 192 -64 160 -64
WIRE 432 -64 320 -64
WIRE 64 -48 32 -48
WIRE 192 -48 192 -64
WIRE 224 -48 192 -48
WIRE 560 -48 528 -48
WIRE 336 -32 336 -176
WIRE 432 -32 336 -32
WIRE -144 64 -144 -224
WIRE 64 64 -144 64
WIRE 224 64 192 64
WIRE 192 80 192 64
WIRE 192 80 160 80
WIRE 432 80 320 80
WIRE 32 96 32 -48
WIRE 64 96 32 96
WIRE 192 96 192 80
WIRE 224 96 192 96
WIRE 560 96 528 96
WIRE 336 112 336 -32
WIRE 432 112 336 112
WIRE -192 192 -192 -80
WIRE -16 192 -16 -192
WIRE 336 192 336 112
WIRE -208 320 -208 288
WIRE -192 320 -208 320
WIRE -176 320 -176 288
WIRE -176 320 -192 320
WIRE -144 320 -144 64
WIRE -144 320 -176 320
WIRE -32 320 -32 288
WIRE -16 320 -32 320
WIRE 0 320 0 288
WIRE 0 320 -16 320
WIRE 32 320 32 96
WIRE 32 320 0 320
WIRE 320 320 320 288
WIRE 336 320 320 320
WIRE 352 320 352 288
WIRE 352 320 336 320
WIRE -192 368 -192 320
WIRE -16 368 -16 320
WIRE 336 368 336 320
WIRE 0 0 0 0
FLAG 560 96 Y0
IOPIN 560 96 Out
FLAG 560 -48 Y1
IOPIN 560 -48 Out
FLAG 560 -192 Y2
IOPIN 560 -192 Out
FLAG 560 -336 Y3
IOPIN 560 -336 Out
FLAG -192 368 A0
IOPIN -192 368 In
FLAG -16 368 A1
IOPIN -16 368 In
FLAG -48 256 VDD
IOPIN -48 256 In
FLAG 336 368 D
IOPIN 336 368 In
FLAG -224 256 VDD
IOPIN -224 256 In
FLAG 304 256 VDD
IOPIN 304 256 In
FLAG 464 64 VDD
IOPIN 464 64 In
FLAG 464 -80 VDD
IOPIN 464 -80 In
FLAG 464 -224 VDD
IOPIN 464 -224 In
FLAG 464 -368 VDD
IOPIN 464 -368 In
FLAG 256 -384 VDD
IOPIN 256 -384 In
FLAG 256 -240 VDD
IOPIN 256 -240 In
FLAG 256 -96 VDD
IOPIN 256 -96 In
FLAG 256 48 VDD
IOPIN 256 48 In
FLAG 96 -384 VDD
IOPIN 96 -384 In
FLAG 96 -240 VDD
IOPIN 96 -240 In
FLAG 96 -96 VDD
IOPIN 96 -96 In
FLAG 96 48 VDD
IOPIN 96 48 In
SYMBOL nor -192 256 R270
SYMATTR InstName X1
SYMBOL nor -16 256 R270
SYMATTR InstName X3
SYMBOL nor 336 256 R270
SYMATTR InstName X2
SYMBOL nor 464 96 R0
SYMATTR InstName X4
SYMBOL nor 464 -48 R0
SYMATTR InstName X5
SYMBOL nor 464 -192 R0
SYMATTR InstName X6
SYMBOL nor 464 -336 R0
SYMATTR InstName X7
SYMBOL nor 256 80 R0
SYMATTR InstName X8
SYMBOL nor 256 -64 R0
SYMATTR InstName X9
SYMBOL nor 256 -208 R0
SYMATTR InstName X10
SYMBOL nor 256 -352 R0
SYMATTR InstName X11
SYMBOL nor 96 -352 R0
SYMATTR InstName X12
SYMBOL nor 96 -208 R0
SYMATTR InstName X13
SYMBOL nor 96 -64 R0
SYMATTR InstName X14
SYMBOL nor 96 80 R0
SYMATTR InstName X15
