Version 4
SHEET 1 880 680
WIRE 192 80 96 80
WIRE 352 96 288 96
WIRE 464 96 352 96
WIRE 192 112 176 112
WIRE 464 176 464 160
WIRE 464 176 352 176
WIRE 96 192 96 80
WIRE 176 192 176 112
WIRE 464 192 464 176
WIRE -64 288 -64 272
WIRE 96 288 96 272
WIRE 176 288 176 272
FLAG 176 288 0
FLAG -64 288 0
FLAG -64 192 VDD
FLAG 224 64 VDD
FLAG 464 192 0
FLAG 96 288 0
SYMBOL nor 224 96 R0
WINDOW 39 0 0 Left 0
SYMATTR InstName X1
SYMBOL voltage 176 176 R0
WINDOW 123 0 0 Left 0
WINDOW 39 0 0 Left 0
WINDOW 3 32 94 Left 2
SYMATTR Value PULSE(0 1 0n 10p 10p 9n 18n)
SYMATTR InstName V1
SYMBOL voltage -64 176 R0
WINDOW 123 0 0 Left 0
WINDOW 39 0 0 Left 0
SYMATTR InstName VDD2
SYMATTR Value 1
SYMBOL res 336 80 R0
SYMATTR InstName R1
SYMATTR Value 100k
SYMBOL cap 448 96 R0
SYMATTR InstName C1
SYMATTR Value 100f
SYMBOL voltage 96 176 R0
WINDOW 123 0 0 Left 0
WINDOW 39 0 0 Left 0
WINDOW 3 32 94 Invisible 2
SYMATTR Value PULSE(0 1 9n 10p 10p 18n 36n)
SYMATTR InstName V2
TEXT -88 -8 Left 2 !.include 90nm_bulk.txt
TEXT -72 336 Left 2 !.tran 0 36n 0 1p
