Version 4
SHEET 1 880 680
WIRE 352 -352 128 -352
WIRE 464 -352 352 -352
WIRE 464 -272 464 -288
WIRE 464 -272 352 -272
WIRE 464 -256 464 -272
WIRE 128 -224 128 -352
WIRE 352 -224 320 -224
WIRE 464 -224 352 -224
WIRE 320 -192 320 -224
WIRE 320 -192 128 -192
WIRE 32 -176 -64 -176
WIRE 320 -160 128 -160
WIRE 464 -144 464 -160
WIRE 464 -144 352 -144
WIRE 464 -128 464 -144
WIRE 320 -96 320 -160
WIRE 352 -96 320 -96
WIRE 464 -96 352 -96
WIRE 464 -16 464 -32
WIRE 464 -16 352 -16
WIRE 464 0 464 -16
WIRE 128 32 128 -128
WIRE 352 32 128 32
WIRE 464 32 352 32
WIRE -64 64 -64 -176
WIRE 64 64 64 -112
WIRE 64 64 16 64
WIRE 96 64 96 -112
WIRE 464 112 464 96
WIRE 464 112 352 112
WIRE 464 128 464 112
WIRE 16 144 -64 144
WIRE 96 144 16 144
WIRE -176 160 -176 144
WIRE 96 160 96 144
FLAG 96 160 0
FLAG -176 160 0
FLAG -176 64 VDD
FLAG 464 128 0
FLAG 464 0 0
FLAG 464 -128 0
FLAG 464 -256 0
FLAG 80 -240 VDD
SYMBOL voltage 96 48 R0
WINDOW 123 0 0 Left 0
WINDOW 39 0 0 Left 0
WINDOW 3 33 115 Left 2
SYMATTR Value PULSE(0 1 9n 10p 10p 9n 18n)
SYMATTR InstName V1
SYMBOL voltage -176 48 R0
WINDOW 123 0 0 Left 0
WINDOW 39 0 0 Left 0
SYMATTR InstName VDD2
SYMATTR Value 1
SYMBOL res 336 16 R0
SYMATTR InstName R1
SYMATTR Value 100k
SYMBOL cap 448 32 R0
SYMATTR InstName C1
SYMATTR Value 100f
SYMBOL res 336 -112 R0
SYMATTR InstName R2
SYMATTR Value 100k
SYMBOL cap 448 -96 R0
SYMATTR InstName C2
SYMATTR Value 100f
SYMBOL res 336 -240 R0
SYMATTR InstName R3
SYMATTR Value 100k
SYMBOL cap 448 -224 R0
SYMATTR InstName C3
SYMATTR Value 100f
SYMBOL res 336 -368 R0
SYMATTR InstName R4
SYMATTR Value 100k
SYMBOL cap 448 -352 R0
SYMATTR InstName C4
SYMATTR Value 100f
SYMBOL demux1to4 80 -176 R0
SYMATTR InstName X1
SYMBOL voltage 16 48 R0
WINDOW 123 0 0 Left 0
WINDOW 39 0 0 Left 0
WINDOW 3 32 94 Invisible 2
WINDOW 0 3 -1 Left 2
SYMATTR Value PULSE(0 1 18n 10p 10p 18n 36n)
SYMATTR InstName V2
SYMBOL voltage -64 48 R0
WINDOW 123 0 0 Left 0
WINDOW 39 0 0 Left 0
WINDOW 3 32 94 Invisible 2
WINDOW 0 3 -1 Left 2
SYMATTR Value PULSE(0 1 36n 10p 10p 36n 72n)
SYMATTR InstName V3
TEXT -192 -384 Left 2 !.include 90nm_bulk.txt
TEXT -192 192 Left 2 !.tran 0 80n 0 1p
